                                   MODFLOW 6
                U.S. GEOLOGICAL SURVEY MODULAR HYDROLOGIC MODEL
                            VERSION 6.1.1 06/12/2020

   MODFLOW 6 compiled Jun 11 2020 17:47:19 with IFORT compiler (ver. 19.10.0)

This software has been approved for release by the U.S. Geological 
Survey (USGS). Although the software has been subjected to rigorous 
review, the USGS reserves the right to update the software as needed 
pursuant to further analysis and review. No warranty, expressed or 
implied, is made by the USGS or the U.S. Government as to the 
functionality of the software and related material nor shall the 
fact of release constitute any such warranty. Furthermore, the 
software is released on condition that neither the USGS nor the U.S. 
Government shall be held liable for any damages resulting from its 
authorized or unauthorized use. Also refer to the USGS Water 
Resources Software User Rights Notice for complete use, copyright, 
and distribution information.


System command used to initiate simulation:
C:\models\tvswa\mfmodify\examples\mf6.exe

MODFLOW was compiled using uniform precision.

Real Variables
  KIND: 8
  TINY (smallest non-zero value):    2.225074-308
  HUGE (largest value):    1.797693+308
  PRECISION: 15
  BIT SIZE: 64

Integer Variables
  KIND: 4
  HUGE (largest value): 2147483647
  BIT SIZE: 32

Long Integer Variables
  KIND: 8
  HUGE (largest value): 9223372036854775807
  BIT SIZE: 64

Logical Variables
  KIND: 4
  BIT SIZE: 32
 

 OPENED mfsim.nam
 FILE TYPE:NAM   UNIT 1001   STATUS:OLD                 
 FORMAT:FORMATTED              ACCESS:SEQUENTIAL          
 ACTION:READ                

 # File generated by Flopy version 3.8.0 on 08/20/2024 at 11:25:49.

 READING SIMULATION OPTIONS
 END OF SIMULATION OPTIONS

 READING SIMULATION TIMING

 OPENED mf6-tv_hist.tdis
 FILE TYPE:TDIS   UNIT 1002   STATUS:OLD                 
 FORMAT:FORMATTED              ACCESS:SEQUENTIAL          
 ACTION:READ                


 TDIS -- TEMPORAL DISCRETIZATION PACKAGE,
 VERSION 1 : 11/13/2014 - INPUT READ FROM UNIT 1002
 # File generated by Flopy version 3.8.0 on 08/20/2024 at 11:25:49.
 PROCESSING TDIS OPTIONS
    SIMULATION TIME UNIT IS DAYS
    SIMULATION STARTING DATE AND TIME IS 1985-12-01t14:24:00           
 END OF TDIS OPTIONS
 PROCESSING TDIS DIMENSIONS
  361 STRESS PERIOD(S) IN SIMULATION
 END OF TDIS DIMENSIONS
 PROCESSING TDIS PERIODDATA


 STRESS PERIOD     LENGTH       TIME STEPS     MULTIPLIER FOR DELT
 ----------------------------------------------------------------------------
        1         30.40000          1                    1.500
        2         31.00000          1                    1.500
        3         28.00000          1                    1.500
        4         31.00000          1                    1.500
        5         30.00000          1                    1.500
        6         31.00000          1                    1.500
        7         30.00000          1                    1.500
        8         31.00000          1                    1.500
        9         31.00000          1                    1.500
       10         30.00000          1                    1.500
       11         31.00000          1                    1.500
       12         30.00000          1                    1.500
       13         31.00000          1                    1.500
       14         31.00000          1                    1.500
       15         28.00000          1                    1.500
       16         31.00000          1                    1.500
       17         30.00000          1                    1.500
       18         31.00000          1                    1.500
       19         30.00000          1                    1.500
       20         31.00000          1                    1.500
       21         31.00000          1                    1.500
       22         30.00000          1                    1.500
       23         31.00000          1                    1.500
       24         30.00000          1                    1.500
       25         31.00000          1                    1.500
       26         31.00000          1                    1.500
       27         29.00000          1                    1.500
       28         31.00000          1                    1.500
       29         30.00000          1                    1.500
       30         31.00000          1                    1.500
       31         30.00000          1                    1.500
       32         31.00000          1                    1.500
       33         31.00000          1                    1.500
       34         30.00000          1                    1.500
       35         31.00000          1                    1.500
       36         30.00000          1                    1.500
       37         31.00000          1                    1.500
       38         31.00000          1                    1.500
       39         28.00000          1                    1.500
       40         31.00000          1                    1.500
       41         30.00000          1                    1.500
       42         31.00000          1                    1.500
       43         30.00000          1                    1.500
       44         31.00000          1                    1.500
       45         31.00000          1                    1.500
       46         30.00000          1                    1.500
       47         31.00000          1                    1.500
       48         30.00000          1                    1.500
       49         31.00000          1                    1.500
       50         31.00000          1                    1.500
       51         28.00000          1                    1.500
       52         31.00000          1                    1.500
       53         30.00000          1                    1.500
       54         31.00000          1                    1.500
       55         30.00000          1                    1.500
       56         31.00000          1                    1.500
       57         31.00000          1                    1.500
       58         30.00000          1                    1.500
       59         31.00000          1                    1.500
       60         30.00000          1                    1.500
       61         31.00000          1                    1.500
       62         31.00000          1                    1.500
       63         28.00000          1                    1.500
       64         31.00000          1                    1.500
       65         30.00000          1                    1.500
       66         31.00000          1                    1.500
       67         30.00000          1                    1.500
       68         31.00000          1                    1.500
       69         31.00000          1                    1.500
       70         30.00000          1                    1.500
       71         31.00000          1                    1.500
       72         30.00000          1                    1.500
       73         31.00000          1                    1.500
       74         31.00000          1                    1.500
       75         29.00000          1                    1.500
       76         31.00000          1                    1.500
       77         30.00000          1                    1.500
       78         31.00000          1                    1.500
       79         30.00000          1                    1.500
       80         31.00000          1                    1.500
       81         31.00000          1                    1.500
       82         30.00000          1                    1.500
       83         31.00000          1                    1.500
       84         30.00000          1                    1.500
       85         31.00000          1                    1.500
       86         31.00000          1                    1.500
       87         28.00000          1                    1.500
       88         31.00000          1                    1.500
       89         30.00000          1                    1.500
       90         31.00000          1                    1.500
       91         30.00000          1                    1.500
       92         31.00000          1                    1.500
       93         31.00000          1                    1.500
       94         30.00000          1                    1.500
       95         31.00000          1                    1.500
       96         30.00000          1                    1.500
       97         31.00000          1                    1.500
       98         31.00000          1                    1.500
       99         28.00000          1                    1.500
      100         31.00000          1                    1.500
      101         30.00000          1                    1.500
      102         31.00000          1                    1.500
      103         30.00000          1                    1.500
      104         31.00000          1                    1.500
      105         31.00000          1                    1.500
      106         30.00000          1                    1.500
      107         31.00000          1                    1.500
      108         30.00000          1                    1.500
      109         31.00000          1                    1.500
      110         31.00000          1                    1.500
      111         28.00000          1                    1.500
      112         31.00000          1                    1.500
      113         30.00000          1                    1.500
      114         31.00000          1                    1.500
      115         30.00000          1                    1.500
      116         31.00000          1                    1.500
      117         31.00000          1                    1.500
      118         30.00000          1                    1.500
      119         31.00000          1                    1.500
      120         30.00000          1                    1.500
      121         31.00000          1                    1.500
      122         31.00000          1                    1.500
      123         29.00000          1                    1.500
      124         31.00000          1                    1.500
      125         30.00000          1                    1.500
      126         31.00000          1                    1.500
      127         30.00000          1                    1.500
      128         31.00000          1                    1.500
      129         31.00000          1                    1.500
      130         30.00000          1                    1.500
      131         31.00000          1                    1.500
      132         30.00000          1                    1.500
      133         31.00000          1                    1.500
      134         31.00000          1                    1.500
      135         28.00000          1                    1.500
      136         31.00000          1                    1.500
      137         30.00000          1                    1.500
      138         31.00000          1                    1.500
      139         30.00000          1                    1.500
      140         31.00000          1                    1.500
      141         31.00000          1                    1.500
      142         30.00000          1                    1.500
      143         31.00000          1                    1.500
      144         30.00000          1                    1.500
      145         31.00000          1                    1.500
      146         31.00000          1                    1.500
      147         28.00000          1                    1.500
      148         31.00000          1                    1.500
      149         30.00000          1                    1.500
      150         31.00000          1                    1.500
      151         30.00000          1                    1.500
      152         31.00000          1                    1.500
      153         31.00000          1                    1.500
      154         30.00000          1                    1.500
      155         31.00000          1                    1.500
      156         30.00000          1                    1.500
      157         31.00000          1                    1.500
      158         31.00000          1                    1.500
      159         28.00000          1                    1.500
      160         31.00000          1                    1.500
      161         30.00000          1                    1.500
      162         31.00000          1                    1.500
      163         30.00000          1                    1.500
      164         31.00000          1                    1.500
      165         31.00000          1                    1.500
      166         30.00000          1                    1.500
      167         31.00000          1                    1.500
      168         30.00000          1                    1.500
      169         31.00000          1                    1.500
      170         31.00000          1                    1.500
      171         29.00000          1                    1.500
      172         31.00000          1                    1.500
      173         30.00000          1                    1.500
      174         31.00000          1                    1.500
      175         30.00000          1                    1.500
      176         31.00000          1                    1.500
      177         31.00000          1                    1.500
      178         30.00000          1                    1.500
      179         31.00000          1                    1.500
      180         30.00000          1                    1.500
      181         31.00000          1                    1.500
      182         31.00000          1                    1.500
      183         28.00000          1                    1.500
      184         31.00000          1                    1.500
      185         30.00000          1                    1.500
      186         31.00000          1                    1.500
      187         30.00000          1                    1.500
      188         31.00000          1                    1.500
      189         31.00000          1                    1.500
      190         30.00000          1                    1.500
      191         31.00000          1                    1.500
      192         30.00000          1                    1.500
      193         31.00000          1                    1.500
      194         31.00000          1                    1.500
      195         28.00000          1                    1.500
      196         31.00000          1                    1.500
      197         30.00000          1                    1.500
      198         31.00000          1                    1.500
      199         30.00000          1                    1.500
      200         31.00000          1                    1.500
      201         31.00000          1                    1.500
      202         30.00000          1                    1.500
      203         31.00000          1                    1.500
      204         30.00000          1                    1.500
      205         31.00000          1                    1.500
      206         31.00000          1                    1.500
      207         28.00000          1                    1.500
      208         31.00000          1                    1.500
      209         30.00000          1                    1.500
      210         31.00000          1                    1.500
      211         30.00000          1                    1.500
      212         31.00000          1                    1.500
      213         31.00000          1                    1.500
      214         30.00000          1                    1.500
      215         31.00000          1                    1.500
      216         30.00000          1                    1.500
      217         31.00000          1                    1.500
      218         31.00000          1                    1.500
      219         29.00000          1                    1.500
      220         31.00000          1                    1.500
      221         30.00000          1                    1.500
      222         31.00000          1                    1.500
      223         30.00000          1                    1.500
      224         31.00000          1                    1.500
      225         31.00000          1                    1.500
      226         30.00000          1                    1.500
      227         31.00000          1                    1.500
      228         30.00000          1                    1.500
      229         31.00000          1                    1.500
      230         31.00000          1                    1.500
      231         28.00000          1                    1.500
      232         31.00000          1                    1.500
      233         30.00000          1                    1.500
      234         31.00000          1                    1.500
      235         30.00000          1                    1.500
      236         31.00000          1                    1.500
      237         31.00000          1                    1.500
      238         30.00000          1                    1.500
      239         31.00000          1                    1.500
      240         30.00000          1                    1.500
      241         31.00000          1                    1.500
      242         31.00000          1                    1.500
      243         28.00000          1                    1.500
      244         31.00000          1                    1.500
      245         30.00000          1                    1.500
      246         31.00000          1                    1.500
      247         30.00000          1                    1.500
      248         31.00000          1                    1.500
      249         31.00000          1                    1.500
      250         30.00000          1                    1.500
      251         31.00000          1                    1.500
      252         30.00000          1                    1.500
      253         31.00000          1                    1.500
      254         31.00000          1                    1.500
      255         28.00000          1                    1.500
      256         31.00000          1                    1.500
      257         30.00000          1                    1.500
      258         31.00000          1                    1.500
      259         30.00000          1                    1.500
      260         31.00000          1                    1.500
      261         31.00000          1                    1.500
      262         30.00000          1                    1.500
      263         31.00000          1                    1.500
      264         30.00000          1                    1.500
      265         31.00000          1                    1.500
      266         31.00000          1                    1.500
      267         29.00000          1                    1.500
      268         31.00000          1                    1.500
      269         30.00000          1                    1.500
      270         31.00000          1                    1.500
      271         30.00000          1                    1.500
      272         31.00000          1                    1.500
      273         31.00000          1                    1.500
      274         30.00000          1                    1.500
      275         31.00000          1                    1.500
      276         30.00000          1                    1.500
      277         31.00000          1                    1.500
      278         31.00000          1                    1.500
      279         28.00000          1                    1.500
      280         31.00000          1                    1.500
      281         30.00000          1                    1.500
      282         31.00000          1                    1.500
      283         30.00000          1                    1.500
      284         31.00000          1                    1.500
      285         31.00000          1                    1.500
      286         30.00000          1                    1.500
      287         31.00000          1                    1.500
      288         30.00000          1                    1.500
      289         31.00000          1                    1.500
      290         31.00000          1                    1.500
      291         28.00000          1                    1.500
      292         31.00000          1                    1.500
      293         30.00000          1                    1.500
      294         31.00000          1                    1.500
      295         30.00000          1                    1.500
      296         31.00000          1                    1.500
      297         31.00000          1                    1.500
      298         30.00000          1                    1.500
      299         31.00000          1                    1.500
      300         30.00000          1                    1.500
      301         31.00000          1                    1.500
      302         31.00000          1                    1.500
      303         28.00000          1                    1.500
      304         31.00000          1                    1.500
      305         30.00000          1                    1.500
      306         31.00000          1                    1.500
      307         30.00000          1                    1.500
      308         31.00000          1                    1.500
      309         31.00000          1                    1.500
      310         30.00000          1                    1.500
      311         31.00000          1                    1.500
      312         30.00000          1                    1.500
      313         31.00000          1                    1.500
      314         31.00000          1                    1.500
      315         29.00000          1                    1.500
      316         31.00000          1                    1.500
      317         30.00000          1                    1.500
      318         31.00000          1                    1.500
      319         30.00000          1                    1.500
      320         31.00000          1                    1.500
      321         31.00000          1                    1.500
      322         30.00000          1                    1.500
      323         31.00000          1                    1.500
      324         30.00000          1                    1.500
      325         31.00000          1                    1.500
      326         31.00000          1                    1.500
      327         28.00000          1                    1.500
      328         31.00000          1                    1.500
      329         30.00000          1                    1.500
      330         31.00000          1                    1.500
      331         30.00000          1                    1.500
      332         31.00000          1                    1.500
      333         31.00000          1                    1.500
      334         30.00000          1                    1.500
      335         31.00000          1                    1.500
      336         30.00000          1                    1.500
      337         31.00000          1                    1.500
      338         31.00000          1                    1.500
      339         28.00000          1                    1.500
      340         31.00000          1                    1.500
      341         30.00000          1                    1.500
      342         31.00000          1                    1.500
      343         30.00000          1                    1.500
      344         31.00000          1                    1.500
      345         31.00000          1                    1.500
      346         30.00000          1                    1.500
      347         31.00000          1                    1.500
      348         30.00000          1                    1.500
      349         31.00000          1                    1.500
      350         31.00000          1                    1.500
      351         28.00000          1                    1.500
      352         31.00000          1                    1.500
      353         30.00000          1                    1.500
      354         31.00000          1                    1.500
      355         30.00000          1                    1.500
      356         31.00000          1                    1.500
      357         31.00000          1                    1.500
      358         30.00000          1                    1.500
      359         31.00000          1                    1.500
      360         30.00000          1                    1.500
      361         31.00000          1                    1.500
 END OF TDIS PERIODDATA
 END OF SIMULATION TIMING

 READING SIMULATION MODELS
    GWF6 model MF6-TV_HIST will be created as model 1
 END OF SIMULATION MODELS

 READING SIMULATION EXCHANGES
 END OF SIMULATION EXCHANGES

 READING SOLUTIONGROUP

 Creating solution: SLN_1           

 OPENED mf6-tv_hist.ims
 FILE TYPE:IMS   UNIT 1025   STATUS:OLD                 
 FORMAT:FORMATTED              ACCESS:SEQUENTIAL          
 ACTION:READ                

 END OF SIMULATION SOLUTIONGROUP

 IMS -- ITERATIVE MODEL SOLUTION PACKAGE, VERSION 6, 4/28/2017
         INPUT READ FROM UNIT 1025
 # File generated by Flopy version 3.8.0 on 08/20/2024 at 11:25:49.

 PROCESSING IMS OPTIONS
 COMPLEX OPTION:
 DEFAULT SOLVER INPUT VALUES REFLECT STRONGLY NONLINEAR MODEL
 END OF IMS OPTIONS

 PROCESSING IMS NONLINEAR
 END OF IMS NONLINEAR DATA
 **UNDER-RELAXATION WILL BE USED***
 
 ***IMS LINEAR SOLVER WILL BE USED***

 IMSLINEAR -- UNSTRUCTURED LINEAR SOLUTION PACKAGE, VERSION 8, 04/28/2017

 PROCESSING LINEAR DATA
 END OF LINEAR DATA
 
 OUTER ITERATION CONVERGENCE CRITERION    (DVCLOSE) =    0.100000E-03
 MAXIMUM NUMBER OF OUTER ITERATIONS        (MXITER) =       100
 SOLVER PRINTOUT INDEX                     (IPRIMS) =         2
 NONLINEAR ITERATION METHOD            (NONLINMETH) =         3
 LINEAR SOLUTION METHOD                   (LINMETH) =         1
 UNDER-RELAXATION WEIGHT REDUCTION FACTOR   (THETA) =    0.800000E+00
 UNDER-RELAXATION WEIGHT INCREASE INCREMENT (KAPPA) =    0.100000E-03
 UNDER-RELAXATION PREVIOUS HISTORY FACTOR   (GAMMA) =    0.000000E+00
 UNDER-RELAXATIONMOMENTUM TERM          (AMOMENTUM) =    0.000000E+00
    MAXIMUM NUMBER OF BACKTRACKS         (NUMTRACK) =         8
 BACKTRACKING TOLERANCE FACTOR               (BTOL) =    0.100000E+04
 BACKTRACKING REDUCTION FACTOR             (BREDUC) =    0.110000E+01
 BACKTRACKING RESIDUAL LIMIT              (RES_LIM) =    0.100000E+01

       SOLUTION BY THE BICONJUGATE-GRADIENT STABILIZED METHOD
 ------------------------------------------------------------------
 MAXIMUM OF    100 CALLS OF SOLUTION ROUTINE
 MAXIMUM OF    300 INTERNAL ITERATIONS PER CALL TO SOLUTION ROUTINE
 LINEAR ACCELERATION METHOD            = BCGS      
 MATRIX PRECONDITIONING TYPE           = MOD. INCOMPLETE LUT 
 MATRIX SCALING APPROACH               = NO SCALING          
 MATRIX REORDERING APPROACH            = ORIGINAL ORDERING        
 NUMBER OF ORTHOGONALIZATIONS          =        0
 HEAD CHANGE CRITERION FOR CLOSURE     =    0.10000E-06
 RESIDUAL CHANGE CRITERION FOR CLOSURE =    0.10000E-03
 RESIDUAL CONVERGENCE OPTION           =        0
 RESIDUAL CONVERGENCE NORM             = INFINITY NORM   
 RELAXATION FACTOR                     =    0.90000E+00
 NUMBER OF LEVELS                      =              4
 DROP TOLERANCE                        =    0.10000E-05


1
                            STRESS PERIOD NO.    1, LENGTH =   30.40000    
                            -----------------------------------------------

                              NUMBER OF TIME STEPS =     1

                               MULTIPLIER FOR DELT =     1.500

                            INITIAL TIME STEP SIZE =   30.40000    

 OUTER ITERATION SUMMARY
 ----------------------------------------------------------------------------------------------------------------------------------------------------------------
                                OUTER      INNER  BACKTRACK  BACKTRACK        INCOMING        OUTGOING                    STEP   MAXIMUM CHANGE MODEL-(CELLID) OR
 OUTER ITERATION STEP       ITERATION  ITERATION       FLAG ITERATIONS        RESIDUAL        RESIDUAL  MAXIMUM CHANGE SUCCESS             MODEL-PACKAGE-(NUMBER)
 ----------------------------------------------------------------------------------------------------------------------------------------------------------------
 Backtracking                       1                     0          0  1.83738698E+08  1.83738698E+08                       *                                   
 Model                              1         50                                                            -331.29116                             1_GWF-(1,1,10)
 Backtracking                       2                     0          0       49644.861       49644.861                       *                                   
 Model                              2         46                                                            -10.626697                            1_GWF-(1,42,24)
 Backtracking                       3                     0          0       2990.3669       2990.3669                       *                                   
 Model                              3         36                                                           -0.46872169                            1_GWF-(1,21,10)
 Backtracking                       4                     0          0       13.334379       13.334379                       *                                   
 Model                              4         17                                                       -9.88223710E-03                            1_GWF-(1,25,43)
 Backtracking                       5                     0          0      0.31879217      0.31879217                       *                                   
 Model                              5         11                                                       -1.97464431E-03                            1_GWF-(1,25,43)
 Backtracking                       6                     0          0  6.36683705E-02  6.36683705E-02                       *                                   
 Model                              6          3                                                       -3.94336230E-04                            1_GWF-(1,25,43)
 Backtracking                       7                     0          0  1.27081898E-02  1.27081898E-02                       *                                   
 Model                              7          2                                                       -7.87074050E-05       *                    1_GWF-(1,25,43)
 ----------------------------------------------------------------------------------------------------------------------------------------------------------------


 7 CALLS TO NUMERICAL SOLUTION IN TIME STEP 1 STRESS PERIOD 1
 165 TOTAL ITERATIONS

 INNER ITERATION SUMMARY
 --------------------------------------------------------------------------------------------------------------------------------------
      TOTAL      OUTER      INNER                                                            MAXIMUM                                   
  ITERATION  ITERATION  ITERATION  MAXIMUM CHANGE      MAXIMUM CHANGE MODEL-(CELLID)        RESIDUAL    MAXIMUM RESIDUAL MODEL-(CELLID)
 --------------------------------------------------------------------------------------------------------------------------------------
          1          1          1      -330.25523                      1_GWF-(1,1,9)       414218.49                    1_GWF-(4,30,26)
          2          1          2     -0.22621428                      1_GWF-(1,1,9)       169239.75                    1_GWF-(5,29,25)
          3          1          3 -3.17965219E-02                      1_GWF-(1,1,9)       75333.465                    1_GWF-(5,29,25)
          4          1          4 -7.82267421E-03                      1_GWF-(1,1,9)       59404.433                    1_GWF-(6,24,31)
          5          1          5 -3.05472032E-03                      1_GWF-(1,1,9)       38532.261                    1_GWF-(4,46,30)
          6          1          6 -5.84386648E-04                      1_GWF-(1,1,9)       29185.914                    1_GWF-(4,46,30)
          7          1          7  7.33215651E-04                      1_GWF-(1,1,9)       23600.749                    1_GWF-(4,46,30)
          8          1          8  1.65068491E-03                      1_GWF-(1,1,9)       20102.365                    1_GWF-(5,44,28)
          9          1          9 -9.14675638E-04                      1_GWF-(1,1,9)       15610.406                    1_GWF-(4,46,30)
         10          1         10 -1.33530252E-02                      1_GWF-(1,1,9)      -519344.05                    1_GWF-(4,46,30)
         11          1         11       4.0278279                     1_GWF-(1,4,11)       6790.6336                    1_GWF-(5,44,28)
         12          1         12 -5.38898652E-04                      1_GWF-(1,1,9)       3818.3059                    1_GWF-(2,49,62)
         13          1         13 -3.93934044E-04                      1_GWF-(1,1,9)       4590.2719                    1_GWF-(2,49,62)
         14          1         14  1.76445362E-04                      1_GWF-(1,1,9)       4460.4810                    1_GWF-(2,49,62)
         15          1         15 -2.16383517E-05                      1_GWF-(1,1,9)       4312.4339                    1_GWF-(2,49,62)
         16          1         16 -8.66394377E-05                      1_GWF-(1,1,9)       4092.1875                    1_GWF-(2,49,62)
         17          1         17 -2.74053065E-05                      1_GWF-(1,1,9)       3751.8257                    1_GWF-(2,49,62)
         18          1         18  4.48338118E-06                      1_GWF-(1,1,9)       3416.3860                    1_GWF-(2,49,62)
         19          1         19  2.63231077E-06                      1_GWF-(1,1,9)       2534.5413                    1_GWF-(2,49,62)
         20          1         20 -2.04968762E-07                      1_GWF-(1,1,9)       2481.1184                    1_GWF-(2,49,62)
         21          1         21 -1.20105107E-07                      1_GWF-(1,1,9)       1681.3288                    1_GWF-(2,49,62)
         22          1         22 -1.21948053E-07                      1_GWF-(1,1,9)       1203.3240                    1_GWF-(2,49,62)
         23          1         23 -2.43844194E-07                      1_GWF-(1,1,9)       1506.8719                    1_GWF-(5,47,31)
         24          1         24 -5.45475006E-08                      1_GWF-(1,1,9)       6608.4820                    1_GWF-(1,43,20)
         25          1         25  6.41092969E-08                      1_GWF-(1,1,9)       358.72848                    1_GWF-(2,49,62)
         26          1         26 -5.72697071E-08                      1_GWF-(1,1,9)       143.60629                    1_GWF-(2,49,62)
         27          1         27      -3.4774557                    1_GWF-(1,43,57)      -15.795916                    1_GWF-(2,49,62)
         28          1         28 -2.28765650E-07                      1_GWF-(1,1,9)      -14.253096                    1_GWF-(5,47,31)
         29          1         29  1.44685794E-07                      1_GWF-(1,2,7)       4.5663247                    1_GWF-(4,45,55)
         30          1         30  5.77921657E-08                      1_GWF-(1,1,9)      -2.9510823                    1_GWF-(1,44,20)
         31          1         31  1.79197776E-08                      1_GWF-(1,2,8)       1.8158458                    1_GWF-(4,47,55)
         32          1         32  2.25823664E-08                      1_GWF-(1,2,8)       1.8156080                    1_GWF-(1,43,20)
         33          1         33 -3.05337953E-08                      1_GWF-(1,1,9)       7.0395927                    1_GWF-(1,43,20)
         34          1         34  1.29855250E-09                      1_GWF-(1,2,8)      -2.2715815                    1_GWF-(4,45,55)
         35          1         35  4.40568794E-09                      1_GWF-(1,2,8)     -0.45160531                    1_GWF-(1,42,20)
         36          1         36  9.47022946E-10                      1_GWF-(1,2,8)      0.20180949                    1_GWF-(1,42,20)
         37          1         37 -3.74674705E-10                      1_GWF-(1,2,8) -3.82173143E-02                    1_GWF-(1,44,20)
         38          1         38 -1.34854608E-08                     1_GWF-(1,4,11) -3.29470976E-02                    1_GWF-(5,44,28)
         39          1         39 -3.39260173E-12                      1_GWF-(1,1,9) -3.07748691E-02                    1_GWF-(4,44,29)
         40          1         40 -2.87920402E-11                      1_GWF-(1,2,8) -2.74743686E-02                    1_GWF-(1,42,20)
         41          1         41  1.82578999E-11                      1_GWF-(1,2,8) -3.86460531E-03                    1_GWF-(5,44,28)
         42          1         42 -2.88022564E-12                      1_GWF-(1,2,8) -4.18287838E-03                    1_GWF-(4,45,31)
         43          1         43 -1.08933977E-11                      1_GWF-(1,2,8) -3.21521995E-04                    1_GWF-(1,43,20)
         44          1         44 -6.78336630E-12                      1_GWF-(1,2,8)  9.08565956E-04                    1_GWF-(1,43,20)
         45          1         45  1.57828640E-12                      1_GWF-(1,2,8) -1.04840415E-04                    1_GWF-(4,44,29)
         46          1         46  3.06285422E-10                     1_GWF-(1,4,11) -1.05775959E-04                    1_GWF-(5,47,31)
         47          1         47 -2.91204606E-14                      1_GWF-(1,2,8) -5.84463828E-05                    1_GWF-(4,44,29)
         48          1         48 -6.10791158E-14                      1_GWF-(1,2,8)  3.68952127E-05                    1_GWF-(1,43,20)
         49          1         49  4.95473277E-15                      1_GWF-(1,2,8)  4.32422667E-06                    1_GWF-(1,43,20)
         50          1         50  1.19018447E-13                      1_GWF-(1,2,8) -9.58767542E-06                    1_GWF-(1,43,20)
         51          2          1 -7.36076707E-05                      1_GWF-(1,2,8)       1661.9777                    1_GWF-(1,20,11)
         52          2          2 -1.40589814E-04                      1_GWF-(1,2,8)       352.93038                    1_GWF-(4,44,29)
         53          2          3 -1.75048461E-04                      1_GWF-(1,2,8)       268.13360                    1_GWF-(4,46,30)
         54          2          4 -1.53315754E-05                      1_GWF-(1,2,8)      -226.35410                    1_GWF-(1,28,25)
         55          2          5 -1.41454279E-05                      1_GWF-(1,2,8)       144.66448                    1_GWF-(4,46,30)
         56          2          6 -4.26720123E-03                     1_GWF-(1,4,11)       114.52012                    1_GWF-(4,46,30)
         57          2          7 -2.22932516E-06                      1_GWF-(1,2,8)       95.169184                    1_GWF-(4,46,30)
         58          2          8  1.14000635E-07                      1_GWF-(1,2,8)       81.642528                    1_GWF-(4,46,30)
         59          2          9  6.27341980E-07                      1_GWF-(1,2,8)       66.062148                    1_GWF-(4,46,30)
         60          2         10  1.11588339E-05                      1_GWF-(1,2,8)      -144.89032                    1_GWF-(4,46,30)
         61          2         11 -2.81329620E-03                     1_GWF-(1,4,11)       33.368231                    1_GWF-(1,27,24)
         62          2         12 -1.97938114E-06                      1_GWF-(1,2,8)       14.813448                    1_GWF-(6,24,31)
         63          2         13 -2.51006171E-07                      1_GWF-(1,2,8)       11.946241                    1_GWF-(2,49,62)
         64          2         14  9.63409050E-08                      1_GWF-(1,2,8)       11.898593                    1_GWF-(2,49,62)
         65          2         15  3.26493813E-06                      1_GWF-(1,2,8)       9.3191578                    1_GWF-(2,49,62)
         66          2         16 -1.09812283E-06                      1_GWF-(1,2,8)       7.5945001                    1_GWF-(4,45,55)
         67          2         17 -8.96590735E-07                      1_GWF-(1,2,8)       7.2096326                    1_GWF-(4,45,55)
         68          2         18 -6.09631495E-08                      1_GWF-(1,2,8)       10.771450                    1_GWF-(5,47,31)
         69          2         19  1.51414637E-08                      1_GWF-(1,2,8)       6.5973755                    1_GWF-(2,49,62)
         70          2         20  3.25390499E-08                      1_GWF-(1,2,8)       6.6361137                    1_GWF-(2,49,62)
         71          2         21  5.39968552E-07                      1_GWF-(1,2,8)       5.1412967                    1_GWF-(2,49,62)
         72          2         22  2.93251702E-07                      1_GWF-(1,2,8)       3.5666247                    1_GWF-(2,49,62)
         73          2         23 -1.75192383E-07                      1_GWF-(1,2,8)      -3.5487431                    1_GWF-(1,44,20)
         74          2         24  4.47054507E-10                      1_GWF-(1,2,8)       2.3104372                    1_GWF-(2,49,62)
         75          2         25  1.56957291E-08                      1_GWF-(1,2,8)       1.1900473                    1_GWF-(2,49,62)
         76          2         26 -1.59703479E-09                      1_GWF-(1,2,8)       1.2819319                    1_GWF-(2,49,62)
         77          2         27 -1.75475970E-09                      1_GWF-(1,2,8)      0.45191599                    1_GWF-(2,49,62)
         78          2         28 -1.62787640E-09                      1_GWF-(1,2,8)      0.24255815                    1_GWF-(2,49,62)
         79          2         29 -2.18804065E-09                      1_GWF-(1,2,8)  5.47221943E-02                    1_GWF-(2,49,62)
         80          2         30 -1.30509902E-10                      1_GWF-(1,2,8)  2.80223967E-02                    1_GWF-(4,45,55)
         81          2         31 -1.37416981E-10                      1_GWF-(1,2,8)  7.40139066E-03                    1_GWF-(5,47,31)
         82          2         32 -2.80039128E-11                      1_GWF-(1,2,8) -4.61679805E-03                    1_GWF-(4,44,32)
         83          2         33  7.68308680E-12                      1_GWF-(1,2,8)  1.85312945E-03                    1_GWF-(4,45,55)
         84          2         34 -4.68548724E-12                      1_GWF-(1,2,8)  1.78232719E-03                    1_GWF-(4,45,55)
         85          2         35 -6.41655391E-14                      1_GWF-(1,2,8)  5.89869003E-04                    1_GWF-(2,49,62)
         86          2         36 -2.98315775E-12                      1_GWF-(1,2,8)  5.75636539E-04                    1_GWF-(1,44,20)
         87          2         37  5.62018145E-13                      1_GWF-(1,2,8)  8.39173029E-05                    1_GWF-(1,44,20)
         88          2         38  2.48419222E-13                      1_GWF-(1,2,8)  5.88955374E-05                    1_GWF-(1,43,20)
         89          2         39  1.35337619E-13                      1_GWF-(1,2,8) -3.81973531E-05                    1_GWF-(1,43,20)
         90          2         40 -1.49981783E-14                      1_GWF-(1,2,8) -1.61849637E-05                    1_GWF-(6,35,43)
         91          2         41 -1.50444827E-15                      1_GWF-(1,2,8)  2.63494947E-05                    1_GWF-(2,49,62)
         92          2         42 -1.13902564E-13                      1_GWF-(1,2,8)  2.45207715E-05                    1_GWF-(1,19,28)
         93          2         43  8.84856470E-14                      1_GWF-(1,2,8)  1.03148040E-05                    1_GWF-(4,45,55)
         94          2         44  1.59313724E-14                      1_GWF-(1,2,8)  7.30022160E-06                    1_GWF-(4,45,55)
         95          2         45 -1.63975919E-15                      1_GWF-(1,2,8) -3.46543843E-07                    1_GWF-(1,17,35)
         96          2         46 -5.43166079E-14                      1_GWF-(1,2,8)  8.73449545E-07                    1_GWF-(2,49,62)
         97          3          1 -2.48532622E-06                      1_GWF-(1,2,8)       57.890158                    1_GWF-(3,37,33)
         98          3          2 -5.26244735E-06                      1_GWF-(1,2,8)       19.122945                    1_GWF-(3,37,33)
         99          3          3 -4.57825096E-06                      1_GWF-(1,2,8)       9.9826895                    1_GWF-(4,44,29)
        100          3          4 -2.13986035E-06                      1_GWF-(1,2,8)       7.9897793                    1_GWF-(4,44,29)
        101          3          5 -9.13018997E-07                      1_GWF-(1,2,8)       6.7030137                    1_GWF-(4,46,30)
        102          3          6 -8.23658250E-07                      1_GWF-(1,2,8)       4.9016581                    1_GWF-(4,46,30)
        103          3          7  8.71040193E-08                      1_GWF-(1,2,8)       5.1015313                    1_GWF-(4,46,30)
        104          3          8  5.23860732E-07                      1_GWF-(1,2,8)       2.2929359                    1_GWF-(4,44,29)
        105          3          9 -2.03474548E-07                      1_GWF-(1,2,8)       1.7952743                    1_GWF-(4,46,30)
        106          3         10  3.30706740E-11                      1_GWF-(1,2,8)       1.8172235                    1_GWF-(5,44,28)
        107          3         11 -2.04771727E-07                      1_GWF-(1,2,8)       1.1335341                    1_GWF-(5,44,28)
        108          3         12 -5.31694968E-08                      1_GWF-(1,2,8)      0.47540719                    1_GWF-(4,46,30)
        109          3         13 -1.25479886E-05                     1_GWF-(1,4,11)      0.42215802                    1_GWF-(2,49,62)
        110          3         14  2.55497293E-08                      1_GWF-(1,2,8)      0.45405468                    1_GWF-(4,45,31)
        111          3         15  7.73182017E-09                      1_GWF-(1,2,8)      0.40423752                    1_GWF-(2,49,62)
        112          3         16  3.18236084E-09                      1_GWF-(1,2,8)      0.38982830                    1_GWF-(2,49,62)
        113          3         17 -2.20030194E-09                      1_GWF-(1,2,8)      0.36785184                    1_GWF-(2,49,62)
        114          3         18 -2.43925951E-09                      1_GWF-(1,2,8)      0.33883547                    1_GWF-(2,49,62)
        115          3         19 -6.27017267E-10                      1_GWF-(1,2,8)      0.31330331                    1_GWF-(2,49,62)
        116          3         20  7.29904244E-10                      1_GWF-(1,2,8)      0.27703894                    1_GWF-(2,49,62)
        117          3         21  8.00098475E-10                      1_GWF-(1,2,8)      0.23176578                    1_GWF-(2,49,62)
        118          3         22  5.99511978E-10                      1_GWF-(1,2,8)      0.16251990                    1_GWF-(2,49,62)
        119          3         23  8.10851710E-10                      1_GWF-(1,2,8) -3.08675599E-02                    1_GWF-(2,49,62)
        120          3         24 -5.23580066E-09                      1_GWF-(1,2,8)      0.12455375                    1_GWF-(5,47,31)
        121          3         25  1.01173550E-09                      1_GWF-(1,2,8)  3.08340347E-02                    1_GWF-(5,44,28)
        122          3         26  1.77933179E-09                      1_GWF-(1,2,8)  3.07217193E-02                    1_GWF-(5,47,31)
        123          3         27 -2.50741905E-10                      1_GWF-(1,2,8)  1.50818559E-02                    1_GWF-(4,46,30)
        124          3         28  1.29055673E-09                      1_GWF-(1,2,8)  2.67658545E-03                    1_GWF-(4,45,31)
        125          3         29  5.99683035E-11                      1_GWF-(1,2,8)  2.19229993E-03                    1_GWF-(4,45,31)
        126          3         30 -6.26559310E-13                      1_GWF-(1,2,8)  1.57286214E-03                    1_GWF-(4,47,32)
        127          3         31  2.04610467E-11                      1_GWF-(1,2,8) -2.57253610E-04                    1_GWF-(6,35,43)
        128          3         32  2.52098682E-11                      1_GWF-(1,2,8)  1.15257536E-04                    1_GWF-(4,44,29)
        129          3         33 -7.85113654E-11                      1_GWF-(1,2,8) -3.69881892E-04                    1_GWF-(1,20,11)
        130          3         34  6.89744047E-11                      1_GWF-(1,2,8) -4.20228308E-05                    1_GWF-(6,35,43)
        131          3         35 -1.08528398E-13                      1_GWF-(1,2,8) -2.76285235E-05                    1_GWF-(6,35,43)
        132          3         36 -3.67030693E-12                      1_GWF-(1,2,8) -1.92705979E-05                    1_GWF-(6,35,43)
        133          4          1  2.18535579E-13                     1_GWF-(1,1,10)      0.12550275                    1_GWF-(1,29,28)
        134          4          2 -9.75111963E-15                     1_GWF-(1,1,10)  4.19315117E-02                    1_GWF-(5,29,25)
        135          4          3 -7.67875374E-14                     1_GWF-(1,1,10) -3.31372828E-02                    1_GWF-(1,29,28)
        136          4          4 -3.80203228E-12                      1_GWF-(1,2,8) -1.71205057E-02                    1_GWF-(1,29,28)
        137          4          5 -1.12824661E-11                      1_GWF-(1,2,8)  5.68093269E-03                    1_GWF-(6,24,31)
        138          4          6 -2.43673054E-11                      1_GWF-(1,2,8)  1.83387851E-03                    1_GWF-(6,24,31)
        139          4          7 -3.08267809E-11                      1_GWF-(1,2,8)  1.09381221E-03                    1_GWF-(1,17,35)
        140          4          8 -2.97761001E-11                      1_GWF-(1,2,8)  5.83736915E-04                    1_GWF-(1,17,35)
        141          4          9 -2.21511496E-11                      1_GWF-(1,2,8)  2.87108837E-04                    1_GWF-(1,17,35)
        142          4         10 -8.53151910E-12                      1_GWF-(1,2,8)  2.55677183E-04                    1_GWF-(4,46,30)
        143          4         11 -1.46089162E-11                      1_GWF-(1,2,8)  1.92327922E-04                    1_GWF-(4,46,30)
        144          4         12 -1.21460407E-12                      1_GWF-(1,2,8)  1.75030652E-04                    1_GWF-(4,46,30)
        145          4         13 -8.65249641E-13                      1_GWF-(1,2,8)  1.50651401E-04                    1_GWF-(4,46,30)
        146          4         14 -3.06293671E-13                      1_GWF-(1,2,8)  1.35796802E-04                    1_GWF-(4,46,30)
        147          4         15  1.02922745E-13                      1_GWF-(1,2,8)  1.45020371E-04                    1_GWF-(4,46,30)
        148          4         16  9.21683614E-14                      1_GWF-(1,2,8) -1.00115138E-04                    1_GWF-(5,26,22)
        149          4         17  1.68744349E-13                      1_GWF-(1,2,8)  4.17954499E-05                    1_GWF-(4,46,30)
        150          5          1 -1.97414438E-03                    1_GWF-(1,25,43)  3.59413948E-04                    1_GWF-(1,26,39)
        151          5          2 -5.85503214E-14                      1_GWF-(1,2,8)  6.18193961E-05                    1_GWF-(1,26,38)
        152          5          3 -1.65011937E-13                      1_GWF-(1,2,8)  3.72803312E-05                    1_GWF-(4,46,30)
        153          5          4  7.28180648E-13                      1_GWF-(1,2,8)  5.34424489E-05                    1_GWF-(4,46,30)
        154          5          5 -2.83671281E-13                      1_GWF-(1,2,8)  4.44045691E-05                    1_GWF-(4,46,30)
        155          5          6 -1.57312235E-12                      1_GWF-(1,2,8)  9.32198489E-04                    1_GWF-(4,46,30)
        156          5          7  2.97142285E-10                     1_GWF-(1,4,11) -7.88324201E-05                    1_GWF-(4,46,30)
        157          5          8 -2.35640904E-14                      1_GWF-(1,2,8) -3.32873760E-05                    1_GWF-(4,46,30)
        158          5          9 -2.56618029E-14                      1_GWF-(1,2,8) -6.62303117E-05                    1_GWF-(4,46,30)
        159          5         10  5.22246173E-14                      1_GWF-(1,2,8) -2.21508555E-05                    1_GWF-(4,29,37)
        160          5         11  5.74990996E-14                      1_GWF-(1,2,8) -2.61009102E-05                    1_GWF-(4,29,37)
        161          6          1 -3.94273183E-04                    1_GWF-(1,25,43)  7.15643525E-05                    1_GWF-(1,26,39)
        162          6          2 -5.74277618E-15                      1_GWF-(1,2,8)  5.55571043E-06                    1_GWF-(1,26,38)
        163          6          3 -6.68426194E-15                      1_GWF-(1,2,8) -3.71259640E-06                    1_GWF-(1,26,38)
        164          7          1 -7.86971813E-05                    1_GWF-(1,25,43)  1.43905211E-05                    1_GWF-(1,26,39)
        165          7          2 -1.29961078E-15                      1_GWF-(1,2,8)  3.44094382E-06                    1_GWF-(1,26,38)
 --------------------------------------------------------------------------------------------------------------------------------------


1
                            STRESS PERIOD NO.    2, LENGTH =   31.00000    
                            -----------------------------------------------

                              NUMBER OF TIME STEPS =     1

                               MULTIPLIER FOR DELT =     1.500

                            INITIAL TIME STEP SIZE =   31.00000    

 OUTER ITERATION SUMMARY
 ----------------------------------------------------------------------------------------------------------------------------------------------------------------
                                OUTER      INNER  BACKTRACK  BACKTRACK        INCOMING        OUTGOING                    STEP   MAXIMUM CHANGE MODEL-(CELLID) OR
 OUTER ITERATION STEP       ITERATION  ITERATION       FLAG ITERATIONS        RESIDUAL        RESIDUAL  MAXIMUM CHANGE SUCCESS             MODEL-PACKAGE-(NUMBER)
 ----------------------------------------------------------------------------------------------------------------------------------------------------------------
 Backtracking                       1                     0          0       324053.56       324053.56                       *                                   
 Model                              1         16                                                             9.3810009                            1_GWF-(5,39,28)
 Backtracking                       2                     0          0       1863.0208       1863.0208                       *                                   
 Model                              2         11                                                           -0.22374354                            1_GWF-(1,29,30)
 Backtracking                       3                     0          0       3.9818060       3.9818060                       *                                   
 Model                              3          7                                                       -2.39659900E-03                            1_GWF-(4,27,30)
 Backtracking                       4                     0          0      0.79596750      0.79596750                       *                                   
 Model                              4          6                                                       -4.79083067E-04                            1_GWF-(4,27,30)
 Backtracking                       5                     0          0      0.15902484      0.15902484                       *                                   
 Model                              5          3                                                       -9.57201153E-05       *                    1_GWF-(4,27,30)
 ----------------------------------------------------------------------------------------------------------------------------------------------------------------


 5 CALLS TO NUMERICAL SOLUTION IN TIME STEP 1 STRESS PERIOD 2
 43 TOTAL ITERATIONS

 INNER ITERATION SUMMARY
 --------------------------------------------------------------------------------------------------------------------------------------
      TOTAL      OUTER      INNER                                                            MAXIMUM                                   
  ITERATION  ITERATION  ITERATION  MAXIMUM CHANGE      MAXIMUM CHANGE MODEL-(CELLID)        RESIDUAL    MAXIMUM RESIDUAL MODEL-(CELLID)
 --------------------------------------------------------------------------------------------------------------------------------------
          1          1          1 -2.86329828E-03                     1_GWF-(1,1,10)       1355.2516                    1_GWF-(4,30,26)
          2          1          2 -3.57063967E-06                     1_GWF-(1,1,10)       418.28296                    1_GWF-(4,30,26)
          3          1          3  3.30561176E-06                     1_GWF-(1,1,10)       85.169972                    1_GWF-(5,29,25)
          4          1          4  3.35691764E-07                     1_GWF-(1,1,10)      -28.487642                    1_GWF-(4,44,29)
          5          1          5  1.14348709E-06                      1_GWF-(1,2,8)      -12.588971                    1_GWF-(4,46,30)
          6          1          6  3.63326464E-09                     1_GWF-(1,1,10)      -5.6697172                    1_GWF-(4,44,29)
          7          1          7  2.63514012E-09                     1_GWF-(1,1,10)      -2.7038816                    1_GWF-(6,24,31)
          8          1          8 -8.87129302E-10                     1_GWF-(1,1,10)      0.26963326                    1_GWF-(6,23,33)
          9          1          9  1.49340909E-10                     1_GWF-(1,1,10)      0.10179830                    1_GWF-(5,29,25)
         10          1         10  9.60947802E-11                     1_GWF-(1,1,10)  4.00225604E-02                    1_GWF-(6,24,31)
         11          1         11 -1.07510669E-11                     1_GWF-(1,1,10)  5.23620820E-03                    1_GWF-(5,29,25)
         12          1         12  1.08824547E-11                     1_GWF-(1,1,10)  9.15917426E-04                    1_GWF-(6,24,31)
         13          1         13 -3.67583736E-13                     1_GWF-(1,1,10) -2.04053181E-04                    1_GWF-(2,49,62)
         14          1         14 -1.30569239E-13                     1_GWF-(1,1,10) -1.08566514E-04                    1_GWF-(4,30,25)
         15          1         15  8.35115834E-15                     1_GWF-(1,1,10) -2.64527208E-04                    1_GWF-(5,29,25)
         16          1         16  5.25120573E-14                     1_GWF-(1,1,10) -2.41824113E-05                    1_GWF-(5,29,25)
         17          2          1 -2.51672585E-15                      1_GWF-(1,1,9)       27.714907                    1_GWF-(1,35,29)
         18          2          2 -1.37825686E-12                      1_GWF-(1,2,8)       4.4946807                    1_GWF-(1,32,26)
         19          2          3 -3.59555718E-12                      1_GWF-(1,2,8)     -0.67428537                    1_GWF-(1,36,29)
         20          2          4 -2.02949544E-12                      1_GWF-(1,2,8)      0.19703449                    1_GWF-(6,24,31)
         21          2          5 -3.66518180E-12                      1_GWF-(1,2,8) -4.68410205E-02                    1_GWF-(1,37,30)
         22          2          6 -1.57750391E-12                      1_GWF-(1,2,8)  1.51869082E-02                    1_GWF-(6,23,33)
         23          2          7 -8.84012074E-13                      1_GWF-(1,2,8)  1.74904084E-03                    1_GWF-(6,23,33)
         24          2          8  8.60883946E-15                      1_GWF-(1,2,8)  3.51017410E-04                    1_GWF-(5,29,25)
         25          2          9  3.59102894E-14                      1_GWF-(1,2,8)  5.20131641E-04                    1_GWF-(4,30,26)
         26          2         10 -7.48642667E-14                      1_GWF-(1,2,8)  3.25687183E-05                    1_GWF-(4,30,25)
         27          2         11 -9.78068221E-15                      1_GWF-(1,2,8)  1.05405627E-05                    1_GWF-(4,46,30)
         28          3          1 -3.29401396E-14                     1_GWF-(1,1,10)  2.17308720E-02                    1_GWF-(4,34,30)
         29          3          2  5.18106740E-14                     1_GWF-(1,1,10)  4.60563116E-03                    1_GWF-(6,24,32)
         30          3          3 -3.66295009E-13                      1_GWF-(1,2,8)  1.97391246E-03                    1_GWF-(6,23,32)
         31          3          4 -1.03671401E-14                     1_GWF-(1,1,10)  1.84227676E-03                    1_GWF-(4,46,30)
         32          3          5  5.63188456E-14                      1_GWF-(1,2,8)  1.75622815E-04                    1_GWF-(4,46,30)
         33          3          6 -2.54744991E-14                      1_GWF-(1,2,8)  1.63201728E-04                    1_GWF-(1,36,29)
         34          3          7  2.13838252E-14                      1_GWF-(1,2,8)  2.58227834E-05                    1_GWF-(1,35,29)
         35          4          1  1.44218991E-13                      1_GWF-(1,1,9)  4.34461387E-03                    1_GWF-(4,34,30)
         36          4          2  2.74995735E-14                      1_GWF-(1,1,9)  9.19455877E-04                    1_GWF-(6,24,32)
         37          4          3 -7.16279873E-14                      1_GWF-(1,2,8)  4.03335961E-04                    1_GWF-(6,23,32)
         38          4          4 -4.14427861E-15                      1_GWF-(1,1,9)  3.58014890E-04                    1_GWF-(4,46,30)
         39          4          5  7.73872213E-15                      1_GWF-(1,2,8)  3.81274162E-05                    1_GWF-(4,46,30)
         40          4          6 -2.90751043E-15                      1_GWF-(1,1,9)  3.30751222E-05                    1_GWF-(1,36,29)
         41          5          1  1.32221162E-13                      1_GWF-(1,1,9)  8.68009631E-04                    1_GWF-(4,34,30)
         42          5          2  5.09769956E-15                      1_GWF-(1,1,9)  1.83614594E-04                    1_GWF-(6,24,32)
         43          5          3 -1.12012451E-14                      1_GWF-(1,1,9)  8.37087697E-05                    1_GWF-(6,23,32)
 --------------------------------------------------------------------------------------------------------------------------------------


1
                            STRESS PERIOD NO.    3, LENGTH =   28.00000    
                            -----------------------------------------------

                              NUMBER OF TIME STEPS =     1

                               MULTIPLIER FOR DELT =     1.500

                            INITIAL TIME STEP SIZE =   28.00000    

 OUTER ITERATION SUMMARY
 ----------------------------------------------------------------------------------------------------------------------------------------------------------------
                                OUTER      INNER  BACKTRACK  BACKTRACK        INCOMING        OUTGOING                    STEP   MAXIMUM CHANGE MODEL-(CELLID) OR
 OUTER ITERATION STEP       ITERATION  ITERATION       FLAG ITERATIONS        RESIDUAL        RESIDUAL  MAXIMUM CHANGE SUCCESS             MODEL-PACKAGE-(NUMBER)
 ----------------------------------------------------------------------------------------------------------------------------------------------------------------
 Backtracking                       1                     0          0       223217.09       223217.09                       *                                   
 Model                              1         14                                                             6.1978342                             1_GWF-(1,8,17)
 Backtracking                       2                     0          0       1217.8407       1217.8407                       *                                   
 Model                              2          9                                                       -8.53703159E-02                             1_GWF-(1,19,8)
 Backtracking                       3                     0          0       3.0446514       3.0446514                       *                                   
 Model                              3          5                                                       -1.87095978E-04                            1_GWF-(5,18,10)
 Backtracking                       4                     0          0      0.60863556      0.60863556                       *                                   
 Model                              4          4                                                       -3.74004884E-05       *                    1_GWF-(5,18,10)
 ----------------------------------------------------------------------------------------------------------------------------------------------------------------


 4 CALLS TO NUMERICAL SOLUTION IN TIME STEP 1 STRESS PERIOD 3
 32 TOTAL ITERATIONS

 INNER ITERATION SUMMARY
 --------------------------------------------------------------------------------------------------------------------------------------
      TOTAL      OUTER      INNER                                                            MAXIMUM                                   
  ITERATION  ITERATION  ITERATION  MAXIMUM CHANGE      MAXIMUM CHANGE MODEL-(CELLID)        RESIDUAL    MAXIMUM RESIDUAL MODEL-(CELLID)
 --------------------------------------------------------------------------------------------------------------------------------------
          1          1          1  1.55847175E-02                      1_GWF-(1,1,9)       573.31799                    1_GWF-(4,30,26)
          2          1          2  1.42512885E-05                      1_GWF-(1,1,9)       193.70772                    1_GWF-(4,30,26)
          3          1          3  1.57969179E-06                      1_GWF-(1,1,9)       54.775106                    1_GWF-(6,24,31)
          4          1          4  8.36157752E-08                      1_GWF-(1,1,9)       20.251416                    1_GWF-(6,24,31)
          5          1          5  1.89652925E-07                      1_GWF-(1,2,8)       7.2118116                    1_GWF-(6,24,31)
          6          1          6 -1.33468705E-09                      1_GWF-(1,1,9)       1.5956926                    1_GWF-(6,24,31)
          7          1          7 -8.18668230E-10                      1_GWF-(1,1,9)      -6.8259240                    1_GWF-(6,23,33)
          8          1          8 -2.74383119E-10                      1_GWF-(1,1,9) -4.90354014E-02                    1_GWF-(3,48,61)
          9          1          9  1.50260026E-11                      1_GWF-(1,1,9)  2.41293456E-02                    1_GWF-(6,24,31)
         10          1         10  4.05164795E-12                      1_GWF-(1,1,9)  6.63227386E-03                    1_GWF-(6,24,31)
         11          1         11 -2.56261864E-12                      1_GWF-(1,1,9) -4.52112367E-03                    1_GWF-(4,43,30)
         12          1         12  5.69942074E-14                      1_GWF-(1,1,9) -4.62938989E-04                    1_GWF-(5,29,25)
         13          1         13  1.82916656E-13                      1_GWF-(1,2,8)  2.86720073E-05                    1_GWF-(5,29,25)
         14          1         14  4.22956223E-14                      1_GWF-(1,1,9)  1.75210958E-05                    1_GWF-(4,46,30)
         15          2          1 -3.12703068E-08                      1_GWF-(1,2,8)       27.948910                    1_GWF-(1,28,25)
         16          2          2 -2.25426946E-08                      1_GWF-(1,2,8)       1.5904219                    1_GWF-(5,29,25)
         17          2          3 -6.35735015E-09                      1_GWF-(1,2,8)      0.57917731                    1_GWF-(1,34,29)
         18          2          4  2.02154989E-09                      1_GWF-(1,2,8)  8.10382204E-02                    1_GWF-(6,24,31)
         19          2          5 -3.58579992E-10                      1_GWF-(1,2,8)  1.62251939E-02                    1_GWF-(6,23,33)
         20          2          6  1.72704713E-10                      1_GWF-(1,2,8)  5.50354563E-03                    1_GWF-(1,35,29)
         21          2          7  2.80877794E-12                      1_GWF-(1,2,8)  1.29664757E-03                    1_GWF-(6,23,33)
         22          2          8  8.30767885E-13                      1_GWF-(1,2,8)  1.70295001E-04                    1_GWF-(6,23,33)
         23          2          9 -9.51540046E-14                      1_GWF-(1,2,8)  6.36606979E-05                    1_GWF-(4,46,30)
         24          3          1 -1.15009526E-08                      1_GWF-(1,2,8)  1.28843250E-02                    1_GWF-(1,31,27)
         25          3          2 -1.63668573E-10                      1_GWF-(1,2,8)  2.45661584E-03                    1_GWF-(5,29,25)
         26          3          3 -1.00479619E-12                      1_GWF-(1,2,8)  6.69338626E-04                    1_GWF-(5,29,25)
         27          3          4 -5.70918989E-13                      1_GWF-(1,2,8)  1.46756869E-04                    1_GWF-(5,29,25)
         28          3          5  1.69395699E-13                      1_GWF-(1,2,8)  6.31439220E-05                    1_GWF-(4,30,25)
         29          4          1 -2.29909462E-09                      1_GWF-(1,2,8)  2.57642631E-03                    1_GWF-(1,31,27)
         30          4          2 -3.27719608E-11                      1_GWF-(1,2,8)  4.95179496E-04                    1_GWF-(5,29,25)
         31          4          3 -1.56787731E-13                      1_GWF-(1,2,8)  1.41556217E-04                    1_GWF-(5,29,25)
         32          4          4 -1.07564042E-13                      1_GWF-(1,2,8)  3.47930340E-05                    1_GWF-(5,29,25)
 --------------------------------------------------------------------------------------------------------------------------------------


1
                            STRESS PERIOD NO.    4, LENGTH =   31.00000    
                            -----------------------------------------------

                              NUMBER OF TIME STEPS =     1

                               MULTIPLIER FOR DELT =     1.500

                            INITIAL TIME STEP SIZE =   31.00000    

 OUTER ITERATION SUMMARY
 ----------------------------------------------------------------------------------------------------------------------------------------------------------------
                                OUTER      INNER  BACKTRACK  BACKTRACK        INCOMING        OUTGOING                    STEP   MAXIMUM CHANGE MODEL-(CELLID) OR
 OUTER ITERATION STEP       ITERATION  ITERATION       FLAG ITERATIONS        RESIDUAL        RESIDUAL  MAXIMUM CHANGE SUCCESS             MODEL-PACKAGE-(NUMBER)
 ----------------------------------------------------------------------------------------------------------------------------------------------------------------
 Backtracking                       1                     0          0       220212.34       220212.34                       *                                   
 Model                              1         15                                                             4.2700257                            1_GWF-(4,47,25)
 Backtracking                       2                     0          0       813.34217       813.34217                       *                                   
 Model                              2          9                                                           -0.11623234                             1_GWF-(1,17,8)
 Backtracking                       3                     0          0       4.0128774       4.0128774                       *                                   
 Model                              3          8                                                       -1.71688324E-04                            1_GWF-(1,31,29)
 Backtracking                       4                     0          0      0.80218660      0.80218660                       *                                   
 Model                              4          4                                                       -3.43145116E-05       *                    1_GWF-(1,31,29)
 ----------------------------------------------------------------------------------------------------------------------------------------------------------------


 4 CALLS TO NUMERICAL SOLUTION IN TIME STEP 1 STRESS PERIOD 4
 36 TOTAL ITERATIONS

 INNER ITERATION SUMMARY
 --------------------------------------------------------------------------------------------------------------------------------------
      TOTAL      OUTER      INNER                                                            MAXIMUM                                   
  ITERATION  ITERATION  ITERATION  MAXIMUM CHANGE      MAXIMUM CHANGE MODEL-(CELLID)        RESIDUAL    MAXIMUM RESIDUAL MODEL-(CELLID)
 --------------------------------------------------------------------------------------------------------------------------------------
          1          1          1      0.43334867                      1_GWF-(1,2,9)       523.49196                    1_GWF-(1,27,25)
          2          1          2  1.67277719E-06                      1_GWF-(1,1,9)       116.04398                    1_GWF-(4,30,26)
          3          1          3 -2.69829358E-06                      1_GWF-(1,1,9)       61.877972                    1_GWF-(6,24,31)
          4          1          4 -2.07899850E-07                      1_GWF-(1,1,9)       25.042541                    1_GWF-(6,24,31)
          5          1          5 -1.29595192E-07                      1_GWF-(1,1,9)       8.5514234                    1_GWF-(4,45,31)
          6          1          6  5.93670501E-09                      1_GWF-(1,1,9)       3.5681742                    1_GWF-(4,45,31)
          7          1          7  1.02148420E-09                      1_GWF-(1,1,9)       2.1828684                    1_GWF-(5,44,31)
          8          1          8 -7.75068246E-10                      1_GWF-(1,1,9)      0.40762075                    1_GWF-(4,46,30)
          9          1          9 -4.16465974E-10                      1_GWF-(1,1,9)      0.15910034                    1_GWF-(4,45,31)
         10          1         10  2.61659268E-12                      1_GWF-(1,1,9)  2.60611468E-02                    1_GWF-(4,45,31)
         11          1         11  3.31129745E-12                      1_GWF-(1,1,9)  3.59140991E-02                    1_GWF-(5,47,31)
         12          1         12 -2.65520349E-12                      1_GWF-(1,1,9) -2.19544210E-03                    1_GWF-(5,29,25)
         13          1         13 -5.24553592E-13                      1_GWF-(1,1,9) -4.54827225E-04                    1_GWF-(5,44,28)
         14          1         14  3.46598241E-14                      1_GWF-(1,1,9) -5.49852725E-04                    1_GWF-(5,44,28)
         15          1         15 -4.63560197E-14                      1_GWF-(1,2,8) -8.87607105E-05                    1_GWF-(5,44,28)
         16          2          1 -8.53476920E-09                      1_GWF-(1,2,8)       2.4473686                    1_GWF-(1,34,28)
         17          2          2 -1.46577981E-08                      1_GWF-(1,2,8)      0.46335841                    1_GWF-(1,34,28)
         18          2          3 -5.00057085E-09                      1_GWF-(1,2,8)  6.62994859E-02                    1_GWF-(5,29,25)
         19          2          4  7.12401683E-10                      1_GWF-(1,2,8)  4.66484963E-02                    1_GWF-(1,35,28)
         20          2          5 -1.14497483E-10                      1_GWF-(1,2,8)  4.83979141E-03                    1_GWF-(6,24,31)
         21          2          6 -1.30992035E-12                      1_GWF-(1,2,8)  1.81260506E-03                    1_GWF-(6,24,31)
         22          2          7  8.37917608E-13                      1_GWF-(1,2,8)  4.66807246E-04                    1_GWF-(6,24,31)
         23          2          8  9.88885174E-13                      1_GWF-(1,2,8)  1.84022894E-04                    1_GWF-(5,11,13)
         24          2          9 -6.62342886E-13                      1_GWF-(1,2,8)  3.91523565E-05                    1_GWF-(4,46,30)
         25          3          1 -5.49979818E-09                      1_GWF-(1,2,8)  8.31265247E-02                    1_GWF-(1,32,28)
         26          3          2 -1.73761811E-11                      1_GWF-(1,2,8)  9.76484470E-03                    1_GWF-(1,32,28)
         27          3          3 -1.68122636E-12                      1_GWF-(1,2,8)  1.96667791E-03                    1_GWF-(1,32,26)
         28          3          4 -4.72286050E-14                      1_GWF-(1,2,8)  3.83550704E-04                    1_GWF-(4,30,26)
         29          3          5  2.96456049E-14                      1_GWF-(1,2,8)  1.25677720E-04                    1_GWF-(6,24,31)
         30          3          6  9.65743023E-15                      1_GWF-(1,2,8)  2.10386040E-04                    1_GWF-(6,23,33)
         31          3          7 -1.92407369E-09                    1_GWF-(1,14,31) -6.32028671E-06                    1_GWF-(5,29,25)
         32          3          8 -1.95163747E-16                      1_GWF-(1,2,8)  1.24030482E-06                    1_GWF-(5,29,25)
         33          4          1 -1.09953154E-09                      1_GWF-(1,2,8)  1.66170526E-02                    1_GWF-(1,32,28)
         34          4          2 -2.19938454E-12                      1_GWF-(1,1,9)  1.95191351E-03                    1_GWF-(1,32,28)
         35          4          3 -8.85340184E-14                      1_GWF-(1,1,9)  3.93126852E-04                    1_GWF-(1,32,26)
         36          4          4  2.74303941E-15                      1_GWF-(1,1,9)  7.66327442E-05                    1_GWF-(4,30,26)
[...]
          6          1          6  1.99660284E-07                      1_GWF-(1,1,9)       10.947072                    1_GWF-(6,35,43)
          7          1          7  3.73010585E-08                      1_GWF-(1,1,9)       12.760195                    1_GWF-(6,35,43)
          8          1          8 -1.87817720E-08                      1_GWF-(1,1,9)      0.97509544                    1_GWF-(6,23,33)
          9          1          9 -1.15867507E-09                     1_GWF-(1,1,10)      0.24879465                    1_GWF-(6,23,33)
         10          1         10 -5.87419356E-11                      1_GWF-(1,1,9)  8.85472980E-02                    1_GWF-(6,23,33)
         11          1         11 -1.72541517E-10                      1_GWF-(1,2,8)  4.27192513E-02                    1_GWF-(6,23,33)
         12          1         12 -2.70017253E-11                      1_GWF-(1,1,9)  2.52470390E-02                    1_GWF-(5,39,22)
         13          1         13  2.26240723E-11                      1_GWF-(1,2,8) -4.17946118E-02                    1_GWF-(2,49,62)
         14          1         14  8.80126127E-12                      1_GWF-(1,2,8) -1.01394793E-03                    1_GWF-(6,23,33)
         15          1         15  5.88509700E-13                      1_GWF-(1,2,8)  3.93848453E-04                    1_GWF-(6,24,31)
         16          1         16 -3.32621812E-13                      1_GWF-(1,2,8) -1.07997347E-04                    1_GWF-(6,24,31)
         17          1         17  1.49722265E-14                     1_GWF-(1,1,10)  4.77522186E-05                    1_GWF-(6,23,33)
         18          2          1 -6.25395118E-08                      1_GWF-(1,2,8)       21.719873                    1_GWF-(1,33,29)
         19          2          2 -6.73161078E-08                      1_GWF-(1,2,8)      -4.4764405                    1_GWF-(1,34,29)
         20          2          3 -4.87743628E-09                      1_GWF-(1,2,8)       3.0435242                    1_GWF-(1,34,29)
         21          2          4  2.21064610E-09                      1_GWF-(1,2,8)      0.25714405                    1_GWF-(6,24,31)
         22          2          5  1.23294706E-10                      1_GWF-(1,2,8)      0.10955010                    1_GWF-(6,24,31)
         23          2          6  7.00495020E-13                      1_GWF-(1,2,8)  3.65277191E-02                    1_GWF-(6,24,31)
         24          2          7 -1.40675984E-12                      1_GWF-(1,2,8)  8.41234178E-03                    1_GWF-(6,24,31)
         25          2          8 -9.30659641E-13                      1_GWF-(1,2,8)  1.20337510E-03                    1_GWF-(6,24,31)
         26          2          9  5.32331312E-13                      1_GWF-(1,2,8)  4.32567361E-04                    1_GWF-(4,46,30)
         27          2         10  3.26769513E-14                      1_GWF-(1,2,8)  4.42311516E-04                    1_GWF-(1,37,30)
         28          2         11  2.47128619E-13                      1_GWF-(1,2,8)  1.09900182E-04                    1_GWF-(4,46,30)
         29          2         12  1.54527023E-13                      1_GWF-(1,2,8) -6.71097617E-05                    1_GWF-(1,36,30)
         30          3          1 -2.46284128E-07                      1_GWF-(1,3,9)      0.42739248                    1_GWF-(4,29,26)
         31          3          2 -3.28297406E-11                      1_GWF-(1,1,9)      0.27266132                    1_GWF-(4,30,25)
         32          3          3 -5.51494245E-11                     1_GWF-(1,1,10) -9.67455479E-02                    1_GWF-(5,29,25)
         33          3          4  2.03570500E-11                     1_GWF-(1,1,10)  2.28781624E-02                    1_GWF-(6,24,31)
         34          3          5  2.66674950E-11                      1_GWF-(1,2,8)  2.10302950E-03                    1_GWF-(5,29,25)
         35          3          6 -6.35912206E-12                      1_GWF-(1,2,8)  1.13435757E-03                    1_GWF-(5,29,25)
         36          3          7 -2.33065184E-14                     1_GWF-(1,1,10) -1.10102741E-04                    1_GWF-(1,35,28)
         37          3          8 -1.35488013E-12                      1_GWF-(1,2,8) -6.41168747E-05                    1_GWF-(5,26,23)
         38          4          1 -4.92306742E-08                      1_GWF-(1,3,9)  8.54383240E-02                    1_GWF-(4,29,26)
         39          4          2 -6.47134168E-12                      1_GWF-(1,1,9)  5.45042097E-02                    1_GWF-(4,30,25)
         40          4          3 -1.10220418E-11                     1_GWF-(1,1,10) -1.93395100E-02                    1_GWF-(5,29,25)
         41          4          4  4.06661721E-12                     1_GWF-(1,1,10)  4.57323041E-03                    1_GWF-(6,24,31)
         42          4          5  5.32868406E-12                      1_GWF-(1,2,8)  4.20532840E-04                    1_GWF-(5,29,25)
         43          4          6 -1.27138182E-12                      1_GWF-(1,2,8)  2.26815400E-04                    1_GWF-(5,29,25)
         44          4          7 -3.95328153E-15                     1_GWF-(1,1,10) -2.22127093E-05                    1_GWF-(1,35,28)
         45          5          1 -9.83719666E-09                      1_GWF-(1,3,9)  1.70699158E-02                    1_GWF-(4,29,26)
         46          5          2 -1.32175373E-12                      1_GWF-(1,1,9)  1.08902499E-02                    1_GWF-(4,30,25)
         47          5          3 -2.20278104E-12                     1_GWF-(1,1,10) -3.86413928E-03                    1_GWF-(5,29,25)
         48          5          4  8.13347434E-13                     1_GWF-(1,1,10)  9.13666644E-04                    1_GWF-(6,24,31)
         49          5          5  1.06587812E-12                      1_GWF-(1,2,8)  8.41090056E-05                    1_GWF-(5,29,25)
         50          5          6 -2.54570982E-13                      1_GWF-(1,2,8)  4.53716876E-05                    1_GWF-(5,29,25)
         51          6          1 -1.96472860E-09                      1_GWF-(1,3,9)  3.41633442E-03                    1_GWF-(4,29,26)
         52          6          2 -2.74162928E-13                      1_GWF-(1,1,9)  2.17842798E-03                    1_GWF-(4,30,25)
         53          6          3 -4.39633975E-13                     1_GWF-(1,1,10) -7.71085391E-04                    1_GWF-(5,29,25)
         54          6          4  1.62443084E-13                     1_GWF-(1,1,10)  1.82898018E-04                    1_GWF-(6,24,31)
         55          6          5  2.13310981E-13                      1_GWF-(1,2,8)  1.69303843E-05                    1_GWF-(5,29,25)
         56          6          6 -5.12359954E-14                      1_GWF-(1,2,8)  9.12900289E-06                    1_GWF-(5,29,25)
 --------------------------------------------------------------------------------------------------------------------------------------


1
                            STRESS PERIOD NO.  361, LENGTH =   31.00000    
                            -----------------------------------------------

                              NUMBER OF TIME STEPS =     1

                               MULTIPLIER FOR DELT =     1.500

                            INITIAL TIME STEP SIZE =   31.00000    

 OUTER ITERATION SUMMARY
 ----------------------------------------------------------------------------------------------------------------------------------------------------------------
                                OUTER      INNER  BACKTRACK  BACKTRACK        INCOMING        OUTGOING                    STEP   MAXIMUM CHANGE MODEL-(CELLID) OR
 OUTER ITERATION STEP       ITERATION  ITERATION       FLAG ITERATIONS        RESIDUAL        RESIDUAL  MAXIMUM CHANGE SUCCESS             MODEL-PACKAGE-(NUMBER)
 ----------------------------------------------------------------------------------------------------------------------------------------------------------------
 Backtracking                       1                     0          0       301742.53       301742.53                       *                                   
 Model                              1         15                                                             12.710718                            1_GWF-(4,47,25)
 Backtracking                       2                     0          0       18037.459       18037.459                       *                                   
 Model                              2         12                                                           -0.60847372                            1_GWF-(1,39,51)
 Backtracking                       3                     0          0       162.41894       162.41894                       *                                   
 Model                              3         11                                                       -5.46160695E-03                            1_GWF-(3,37,50)
 Backtracking                       4                     0          0       32.467568       32.467568                       *                                   
 Model                              4         10                                                       -1.09177511E-03                            1_GWF-(3,37,50)
 Backtracking                       5                     0          0       6.4870217       6.4870217                       *                                   
 Model                              5          8                                                       -2.18135416E-04                            1_GWF-(3,37,50)
 Backtracking                       6                     0          0       1.2954602       1.2954602                       *                                   
 Model                              6          5                                                       -4.35395328E-05       *                    1_GWF-(3,37,50)
 ----------------------------------------------------------------------------------------------------------------------------------------------------------------


 6 CALLS TO NUMERICAL SOLUTION IN TIME STEP 1 STRESS PERIOD 361
 61 TOTAL ITERATIONS

 INNER ITERATION SUMMARY
 --------------------------------------------------------------------------------------------------------------------------------------
      TOTAL      OUTER      INNER                                                            MAXIMUM                                   
  ITERATION  ITERATION  ITERATION  MAXIMUM CHANGE      MAXIMUM CHANGE MODEL-(CELLID)        RESIDUAL    MAXIMUM RESIDUAL MODEL-(CELLID)
 --------------------------------------------------------------------------------------------------------------------------------------
          1          1          1  3.09553525E-03                      1_GWF-(1,1,9)      -792.00686                    1_GWF-(1,11,10)
          2          1          2 -1.12957455E-06                      1_GWF-(1,1,9)      -227.88609                    1_GWF-(4,44,29)
          3          1          3  9.97384771E-07                      1_GWF-(1,1,9)      -118.31044                    1_GWF-(4,45,31)
          4          1          4  3.05878601E-07                      1_GWF-(1,1,9)      -69.374590                    1_GWF-(4,45,31)
          5          1          5  1.73290515E-07                      1_GWF-(1,1,9)      -19.467419                    1_GWF-(4,45,31)
          6          1          6 -1.03997639E-07                      1_GWF-(1,1,9)      -15.906004                    1_GWF-(5,44,31)
          7          1          7  1.47097472E-07                      1_GWF-(1,2,8)      0.60954227                    1_GWF-(6,23,33)
          8          1          8  1.86108388E-09                      1_GWF-(1,1,9)      0.18243555                    1_GWF-(1,35,29)
          9          1          9  6.30922502E-10                      1_GWF-(1,1,9)  8.11943231E-02                    1_GWF-(5,47,31)
         10          1         10 -6.61133183E-10                      1_GWF-(1,1,9)      0.36442217                    1_GWF-(4,44,29)
         11          1         11  1.00912474E-09                      1_GWF-(1,2,8) -4.42640262E-03                    1_GWF-(4,44,29)
         12          1         12  8.53704087E-12                      1_GWF-(1,1,9)  2.31057905E-03                    1_GWF-(1,36,30)
         13          1         13 -6.01947881E-12                      1_GWF-(1,1,9) -2.25272519E-04                    1_GWF-(2,49,62)
         14          1         14 -1.73935438E-13                      1_GWF-(1,1,9) -9.19113357E-05                    1_GWF-(2,49,62)
         15          1         15  2.89768936E-13                      1_GWF-(1,1,9)  5.64421763E-05                    1_GWF-(1,36,29)
         16          2          1 -3.01668946E-10                      1_GWF-(1,2,8)       23.439441                    1_GWF-(4,38,50)
         17          2          2 -2.11163618E-09                      1_GWF-(1,2,8)      -3.9182826                    1_GWF-(2,37,50)
         18          2          3 -3.83152368E-10                      1_GWF-(1,2,8)      0.79018012                    1_GWF-(4,39,51)
         19          2          4  4.83054909E-10                      1_GWF-(1,2,8)      0.28651432                    1_GWF-(4,40,52)
         20          2          5 -1.26678985E-10                      1_GWF-(1,2,8)  7.38328757E-02                    1_GWF-(4,45,55)
         21          2          6  2.39779708E-11                      1_GWF-(1,2,8)  2.93330405E-02                    1_GWF-(4,45,55)
         22          2          7 -1.25262158E-12                      1_GWF-(1,2,8)  1.39909463E-02                    1_GWF-(4,45,55)
         23          2          8  1.75765445E-12                      1_GWF-(1,2,8)  6.12904835E-03                    1_GWF-(2,49,62)
         24          2          9  6.22371033E-13                      1_GWF-(1,2,8) -7.58235193E-03                    1_GWF-(4,39,51)
         25          2         10 -4.04794667E-13                      1_GWF-(1,2,8)  1.07509642E-03                    1_GWF-(2,49,62)
         26          2         11 -1.69956986E-14                      1_GWF-(1,2,8) -4.08822783E-05                    1_GWF-(4,44,29)
         27          2         12  1.90379612E-14                      1_GWF-(1,2,8)  3.73040464E-05                    1_GWF-(4,39,51)
         28          3          1 -3.79324940E-10                      1_GWF-(1,1,9)       3.0442913                    1_GWF-(4,36,50)
         29          3          2 -9.16194461E-12                      1_GWF-(1,1,9)      0.67592044                    1_GWF-(4,40,51)
         30          3          3 -2.10763581E-11                      1_GWF-(1,1,9)     -0.37138366                    1_GWF-(4,36,50)
         31          3          4  1.47423631E-11                      1_GWF-(1,1,9)  3.15685643E-02                    1_GWF-(4,37,50)
         32          3          5 -2.32472264E-12                      1_GWF-(1,1,9)  8.22893333E-03                    1_GWF-(4,47,55)
         33          3          6 -4.44153409E-13                      1_GWF-(1,1,9)  4.39493018E-03                    1_GWF-(4,40,52)
         34          3          7 -3.09820912E-14                      1_GWF-(1,1,9) -6.76163216E-03                    1_GWF-(4,40,52)
         35          3          8  3.41832274E-14                     1_GWF-(1,1,10)  1.75461931E-03                    1_GWF-(4,40,52)
         36          3          9  7.45812331E-16                      1_GWF-(1,1,9)  1.72974265E-03                    1_GWF-(4,40,52)
         37          3         10 -7.92770928E-15                     1_GWF-(1,1,10)  1.27709941E-04                    1_GWF-(2,49,62)
         38          3         11 -1.55177462E-15                      1_GWF-(1,1,9)  3.61373525E-05                    1_GWF-(2,49,62)
         39          4          1 -7.58963779E-11                      1_GWF-(1,1,9)      0.60855396                    1_GWF-(4,36,50)
         40          4          2 -1.83092723E-12                      1_GWF-(1,1,9)      0.13511751                    1_GWF-(4,40,51)
         41          4          3 -4.21310273E-12                      1_GWF-(1,1,9) -7.42430742E-02                    1_GWF-(4,36,50)
         42          4          4  2.94718277E-12                      1_GWF-(1,1,9)  6.31223191E-03                    1_GWF-(4,37,50)
         43          4          5 -4.64861907E-13                      1_GWF-(1,1,9)  1.64541442E-03                    1_GWF-(4,47,55)
         44          4          6 -8.88037394E-14                      1_GWF-(1,1,9)  8.78702998E-04                    1_GWF-(4,40,52)
         45          4          7 -6.17822349E-15                      1_GWF-(1,1,9) -1.35241971E-03                    1_GWF-(4,40,52)
         46          4          8  6.83520875E-15                     1_GWF-(1,1,10)  3.50641204E-04                    1_GWF-(4,40,52)
         47          4          9  1.46041167E-16                      1_GWF-(1,1,9)  3.45510730E-04                    1_GWF-(4,40,52)
         48          4         10 -1.58360818E-15                     1_GWF-(1,1,10)  2.55246844E-05                    1_GWF-(2,49,62)
         49          5          1 -1.51390983E-11                      1_GWF-(1,1,9)      0.12158935                    1_GWF-(4,36,50)
         50          5          2 -3.65981511E-13                      1_GWF-(1,1,9)  2.69972866E-02                    1_GWF-(4,40,51)
         51          5          3 -8.41888662E-13                      1_GWF-(1,1,9) -1.48364178E-02                    1_GWF-(4,36,50)
         52          5          4  5.89038570E-13                      1_GWF-(1,1,9)  1.26246697E-03                    1_GWF-(4,37,50)
         53          5          5 -9.30040775E-14                      1_GWF-(1,1,9)  3.29088644E-04                    1_GWF-(4,47,55)
         54          5          6 -1.77562327E-14                      1_GWF-(1,1,9)  1.75689948E-04                    1_GWF-(4,40,52)
         55          5          7 -1.22617937E-15                      1_GWF-(1,1,9) -2.70739535E-04                    1_GWF-(4,40,52)
         56          5          8  1.36839876E-15                     1_GWF-(1,1,10)  7.00429459E-05                    1_GWF-(4,40,52)
         57          6          1 -3.13173533E-12                      1_GWF-(1,1,9)  2.42816852E-02                    1_GWF-(4,36,50)
         58          6          2 -7.25551177E-14                      1_GWF-(1,1,9)  5.39351549E-03                    1_GWF-(4,40,51)
         59          6          3 -1.68067962E-13                      1_GWF-(1,1,9) -2.96906547E-03                    1_GWF-(4,36,50)
         60          6          4  1.17983443E-13                      1_GWF-(1,1,9)  2.54851711E-04                    1_GWF-(4,37,50)
         61          6          5 -1.88262389E-14                      1_GWF-(1,1,9)  6.63953756E-05                    1_GWF-(4,47,55)
 --------------------------------------------------------------------------------------------------------------------------------------



 MEMORY MANAGER TOTAL STORAGE BY DATA TYPE, IN MEGABYTES
 -------------------------------
                    ALLOCATED   
 DATA TYPE           MEMORY     
 -------------------------------
 Character        0.86325700    
 Logical          4.40000000E-05
 Integer          3.4453720     
 Real             6.7657840     
 -------------------------------
 Total            11.074457     
 -------------------------------


 
 Run end date and time (yyyy/mm/dd hh:mm:ss): 2025/03/24 16:32:56
 Elapsed run time:  2 Minutes, 30.867 Seconds
 Normal termination of simulation.
